g++ -fpic -shared -o ../../without_L2/sim_dram.so main.cc cpu.cc bankstate.cc channel_state.cc command_queue.cc common.cc configuration.cc controller.cc dram_system.cc hmc.cc refresh.cc simple_stats.cc timing.cc memory_system.cc -I/usr/include/python3.8 -I/usr/local/include/boost -I./ -I/home/wangjs/simulator/SCALE-Sim/dramsim3/ext/fmt/include/fmt -I/home/wangjs/simulator/SCALE-Sim/dramsim3/ext/headers  -L/usr/local/lib  -lboost_python39
